iidm/iidm-serde/src/test/resources/V1_9/eurostag-tutorial-example1-opt-sub.xml
<?xml version="1.0" encoding="UTF-8"?>
<iidm:network xmlns:iidm="http://www.powsybl.org/schema/iidm/1_9" id="sim1" caseDate="2021-08-20T12:02:48.504+02:00" forecastDistance="0" sourceFormat="test" minimumValidationLevel="STEADY_STATE_HYPOTHESIS">
    <iidm:voltageLevel id="ADDITIONAL_VL" nominalV="200.0" lowVoltageLimit="160.0" highVoltageLimit="280.0" topologyKind="BUS_BREAKER">
        <iidm:busBreakerTopology>
            <iidm:bus id="ADDITIONAL_BUS1"/>
            <iidm:bus id="ADDITIONAL_BUS2"/>
            <iidm:bus id="ADDITIONAL_BUS3"/>
        </iidm:busBreakerTopology>
    </iidm:voltageLevel>
    <iidm:substation id="P1" country="FR" tso="RTE" geographicalTags="A">
        <iidm:voltageLevel id="VLGEN" nominalV="24.0" topologyKind="BUS_BREAKER">
            <iidm:busBreakerTopology>
                <iidm:bus id="NGEN"/>
            </iidm:busBreakerTopology>
            <iidm:generator id="GEN" energySource="OTHER" minP="-9999.99" maxP="9999.99" voltageRegulatorOn="true" targetP="607.0" targetV="24.5" targetQ="301.0" bus="NGEN" connectableBus="NGEN">
                <iidm:minMaxReactiveLimits minQ="-9999.99" maxQ="9999.99"/>
            </iidm:generator>
        </iidm:voltageLevel>
        <iidm:voltageLevel id="VLHV1" nominalV="380.0" topologyKind="BUS_BREAKER">
            <iidm:busBreakerTopology>
                <iidm:bus id="NHV1"/>
            </iidm:busBreakerTopology>
        </iidm:voltageLevel>
        <iidm:twoWindingsTransformer id="NGEN_NHV1" r="0.26658461538461536" x="11.104492831516762" g="0.0" b="0.0" ratedU1="24.0" ratedU2="400.0" voltageLevelId1="VLGEN" bus1="NGEN" connectableBus1="NGEN" voltageLevelId2="VLHV1" bus2="NHV1" connectableBus2="NHV1"/>
    </iidm:substation>
    <iidm:substation id="P2" country="FR" tso="RTE" geographicalTags="B">
        <iidm:voltageLevel id="VLHV2" nominalV="380.0" topologyKind="BUS_BREAKER">
            <iidm:busBreakerTopology>
                <iidm:bus id="NHV2"/>
            </iidm:busBreakerTopology>
        </iidm:voltageLevel>
        <iidm:voltageLevel id="VLLOAD" nominalV="150.0" topologyKind="BUS_BREAKER">
            <iidm:busBreakerTopology>
                <iidm:bus id="NLOAD"/>
            </iidm:busBreakerTopology>
            <iidm:load id="LOAD" loadType="UNDEFINED" p0="600.0" q0="200.0" bus="NLOAD" connectableBus="NLOAD"/>
        </iidm:voltageLevel>
        <iidm:twoWindingsTransformer id="NHV2_NLOAD" r="0.04724999999999999" x="4.049724365620455" g="0.0" b="0.0" ratedU1="400.0" ratedU2="158.0" voltageLevelId1="VLHV2" bus1="NHV2" connectableBus1="NHV2" voltageLevelId2="VLLOAD" bus2="NLOAD" connectableBus2="NLOAD">
            <iidm:ratioTapChanger regulating="true" lowTapPosition="0" tapPosition="1" targetDeadband="0.0" loadTapChangingCapabilities="true" targetV="158.0">
                <iidm:terminalRef id="NHV2_NLOAD" side="TWO"/>
                <iidm:step r="0.0" x="0.0" g="0.0" b="0.0" rho="0.8505666905244191"/>
                <iidm:step r="0.0" x="0.0" g="0.0" b="0.0" rho="1.0006666666666666"/>
                <iidm:step r="0.0" x="0.0" g="0.0" b="0.0" rho="1.150766642808914"/>
            </iidm:ratioTapChanger>
        </iidm:twoWindingsTransformer>
    </iidm:substation>
    <iidm:twoWindingsTransformer id="ADDITIONAL_T2WT" r="0.21" x="17.998774958313135" g="0.0" b="0.0" ratedU1="220.0" ratedU2="158.0" bus1="ADDITIONAL_BUS1" connectableBus1="ADDITIONAL_BUS1" voltageLevelId1="ADDITIONAL_VL" bus2="ADDITIONAL_BUS2" connectableBus2="ADDITIONAL_BUS2" voltageLevelId2="ADDITIONAL_VL"/>
    <iidm:threeWindingsTransformer id="ADDITIONAL_T3WT" r1="17.424" x1="1.7424" g1="0.00573921028466483" b1="5.73921028466483E-4" ratedU1="132.0" r2="1.089" x2="0.1089" g2="0.0" b2="0.0" ratedU2="33.0" r3="0.121" x3="0.0121" g3="0.0" b3="0.0" ratedU3="11.0" ratedU0="132.0" bus1="ADDITIONAL_BUS1" connectableBus1="ADDITIONAL_BUS1" voltageLevelId1="ADDITIONAL_VL" bus2="ADDITIONAL_BUS2" connectableBus2="ADDITIONAL_BUS2" voltageLevelId2="ADDITIONAL_VL" bus3="ADDITIONAL_BUS3" connectableBus3="ADDITIONAL_BUS3" voltageLevelId3="ADDITIONAL_VL"/>
    <iidm:line id="NHV1_NHV2_1" r="3.0" x="33.0" g1="0.0" b1="1.93E-4" g2="0.0" b2="1.93E-4" voltageLevelId1="VLHV1" bus1="NHV1" connectableBus1="NHV1" voltageLevelId2="VLHV2" bus2="NHV2" connectableBus2="NHV2"/>
    <iidm:line id="NHV1_NHV2_2" r="3.0" x="33.0" g1="0.0" b1="1.93E-4" g2="0.0" b2="1.93E-4" voltageLevelId1="VLHV1" bus1="NHV1" connectableBus1="NHV1" voltageLevelId2="VLHV2" bus2="NHV2" connectableBus2="NHV2"/>
</iidm:network>
